data_image0
_cell_length_a       12.2905
_cell_length_b       12.2905
_cell_length_c       20
_cell_angle_alpha    90
_cell_angle_beta     90
_cell_angle_gamma    120

_symmetry_space_group_name_H-M    "P 1"
_symmetry_int_tables_number       1

loop_
  _symmetry_equiv_pos_as_xyz
  'x, y, z'

loop_
  _atom_site_label
  _atom_site_occupancy
  _atom_site_fract_x
  _atom_site_fract_y
  _atom_site_fract_z
  _atom_site_thermal_displace_type
  _atom_site_B_iso_or_equiv
  _atom_site_type_symbol
  In1      1.0000 0.11041  0.22082  0.58186  Biso   1.000  In
  In2      1.0000 0.11052  0.55526  0.57583  Biso   1.000  In
  In3      1.0000 0.11041  0.88959  0.58186  Biso   1.000  In
  In4      1.0000 0.44538  0.22269  0.58009  Biso   1.000  In
  In5      1.0000 0.44474  0.55526  0.57583  Biso   1.000  In
  In6      1.0000 0.44474  0.88948  0.57583  Biso   1.000  In
  In7      1.0000 0.77731  0.22269  0.58009  Biso   1.000  In
  In8      1.0000 0.77731  0.55462  0.58009  Biso   1.000  In
  In9      1.0000 0.77918  0.88959  0.58186  Biso   1.000  In
  In10     1.0000 0.20859  0.10429  0.79507  Biso   1.000  In
  In11     1.0000 0.22142  0.44283  0.78945  Biso   1.000  In
  In12     1.0000 0.22142  0.77859  0.78945  Biso   1.000  In
  In13     1.0000 0.56257  0.12514  0.79228  Biso   1.000  In
  In14     1.0000 0.56257  0.43743  0.79228  Biso   1.000  In
  In15     1.0000 0.55717  0.77859  0.78945  Biso   1.000  In
  In16     1.0000 0.89571  0.10429  0.79507  Biso   1.000  In
  In17     1.0000 0.87486  0.43743  0.79228  Biso   1.000  In
  In18     1.0000 0.89571  0.79141  0.79507  Biso   1.000  In
  Se1      1.0000 0.00000  0.00000  0.51229  Biso   1.000  Se
  Se2      1.0000 0.99923  0.33080  0.51099  Biso   1.000  Se
  Se3      1.0000 0.99923  0.66843  0.51099  Biso   1.000  Se
  Se4      1.0000 0.33157  0.00077  0.51099  Biso   1.000  Se
  Se5      1.0000 0.33157  0.33080  0.51099  Biso   1.000  Se
  Se6      1.0000 0.33333  0.66667  0.50840  Biso   1.000  Se
  Se7      1.0000 0.66920  0.00077  0.51099  Biso   1.000  Se
  Se8      1.0000 0.66667  0.33333  0.51033  Biso   1.000  Se
  Se9      1.0000 0.66920  0.66843  0.51099  Biso   1.000  Se
  Se10     1.0000 0.22374  0.11187  0.66409  Biso   1.000  Se
  Se11     1.0000 0.22331  0.44663  0.66025  Biso   1.000  Se
  Se12     1.0000 0.22331  0.77669  0.66025  Biso   1.000  Se
  Se13     1.0000 0.55466  0.10932  0.66177  Biso   1.000  Se
  Se14     1.0000 0.55466  0.44534  0.66177  Biso   1.000  Se
  Se15     1.0000 0.55337  0.77669  0.66025  Biso   1.000  Se
  Se16     1.0000 0.88813  0.11187  0.66409  Biso   1.000  Se
  Se17     1.0000 0.89068  0.44534  0.66177  Biso   1.000  Se
  Se18     1.0000 0.88813  0.77626  0.66409  Biso   1.000  Se
  Se19     1.0000 0.00059  0.33533  0.84820  Biso   1.000  Se
  Se20     1.0000 0.00059  0.66527  0.84820  Biso   1.000  Se
  Se21     1.0000 0.33473  0.99941  0.84820  Biso   1.000  Se
  Se22     1.0000 0.33473  0.33533  0.84820  Biso   1.000  Se
  Se23     1.0000 0.33333  0.66667  0.84837  Biso   1.000  Se
  Se24     1.0000 0.66467  0.99941  0.84820  Biso   1.000  Se
  Se25     1.0000 0.66467  0.66527  0.84820  Biso   1.000  Se
  As1      1.0000 0.00000  0.00000  0.86460  Biso   1.000  As
  As2      1.0000 0.66667  0.33333  0.86218  Biso   1.000  As
