data_image0
_cell_length_a       8.19366
_cell_length_b       8.19365
_cell_length_c       20
_cell_angle_alpha    90
_cell_angle_beta     90
_cell_angle_gamma    120

_symmetry_space_group_name_H-M    "P 1"
_symmetry_int_tables_number       1

loop_
  _symmetry_equiv_pos_as_xyz
  'x, y, z'

loop_
  _atom_site_label
  _atom_site_occupancy
  _atom_site_fract_x
  _atom_site_fract_y
  _atom_site_fract_z
  _atom_site_thermal_displace_type
  _atom_site_B_iso_or_equiv
  _atom_site_type_symbol
  In1      1.0000 0.16576  0.33152  0.58004  Biso   1.000  In
  In2      1.0000 0.16576  0.83424  0.58004  Biso   1.000  In
  In3      1.0000 0.66667  0.33333  0.57652  Biso   1.000  In
  In4      1.0000 0.66848  0.83424  0.58004  Biso   1.000  In
  In5      1.0000 0.31303  0.15652  0.79237  Biso   1.000  In
  In6      1.0000 0.33333  0.66667  0.79216  Biso   1.000  In
  In7      1.0000 0.84348  0.15652  0.79237  Biso   1.000  In
  In8      1.0000 0.84348  0.68697  0.79237  Biso   1.000  In
  Se1      1.0000 0.00000  0.00000  0.51058  Biso   1.000  Se
  Se2      1.0000 0.00243  0.50122  0.51077  Biso   1.000  Se
  Se3      1.0000 0.49878  0.99757  0.51077  Biso   1.000  Se
  Se4      1.0000 0.49878  0.50122  0.51077  Biso   1.000  Se
  Se5      1.0000 0.33604  0.16802  0.66195  Biso   1.000  Se
  Se6      1.0000 0.33333  0.66667  0.66224  Biso   1.000  Se
  Se7      1.0000 0.83198  0.16802  0.66195  Biso   1.000  Se
  Se8      1.0000 0.83198  0.66396  0.66195  Biso   1.000  Se
  Se9      1.0000 0.99685  0.49842  0.84819  Biso   1.000  Se
  Se10     1.0000 0.50158  0.00315  0.84819  Biso   1.000  Se
  Se11     1.0000 0.50158  0.49842  0.84819  Biso   1.000  Se
  As1      1.0000 0.00000  0.00000  0.86221  Biso   1.000  As
