data_image0
_cell_length_a       12.2905
_cell_length_b       12.2905
_cell_length_c       20
_cell_angle_alpha    90
_cell_angle_beta     90
_cell_angle_gamma    120

_symmetry_space_group_name_H-M    "P 1"
_symmetry_int_tables_number       1

loop_
  _symmetry_equiv_pos_as_xyz
  'x, y, z'

loop_
  _atom_site_label
  _atom_site_occupancy
  _atom_site_fract_x
  _atom_site_fract_y
  _atom_site_fract_z
  _atom_site_thermal_displace_type
  _atom_site_B_iso_or_equiv
  _atom_site_type_symbol
  In1      1.0000 0.10912  0.21824  0.56518  Biso   1.000  In
  In2      1.0000 0.11498  0.55749  0.57911  Biso   1.000  In
  In3      1.0000 0.10912  0.89088  0.56518  Biso   1.000  In
  In4      1.0000 0.42715  0.21358  0.58799  Biso   1.000  In
  In5      1.0000 0.44251  0.55749  0.57911  Biso   1.000  In
  In6      1.0000 0.44251  0.88502  0.57911  Biso   1.000  In
  In7      1.0000 0.78642  0.21358  0.58799  Biso   1.000  In
  In8      1.0000 0.78642  0.57285  0.58799  Biso   1.000  In
  In9      1.0000 0.78176  0.89088  0.56518  Biso   1.000  In
  In10     1.0000 0.22490  0.11245  0.79037  Biso   1.000  In
  In11     1.0000 0.22188  0.44376  0.78729  Biso   1.000  In
  In12     1.0000 0.22188  0.77812  0.78729  Biso   1.000  In
  In13     1.0000 0.55514  0.11028  0.79374  Biso   1.000  In
  In14     1.0000 0.55514  0.44486  0.79374  Biso   1.000  In
  In15     1.0000 0.55625  0.77812  0.78729  Biso   1.000  In
  In16     1.0000 0.88755  0.11245  0.79037  Biso   1.000  In
  In17     1.0000 0.88972  0.44486  0.79374  Biso   1.000  In
  In18     1.0000 0.88755  0.77510  0.79037  Biso   1.000  In
  Se1      1.0000 0.99616  0.33781  0.51115  Biso   1.000  Se
  Se2      1.0000 0.99616  0.65835  0.51115  Biso   1.000  Se
  Se3      1.0000 0.34165  0.00384  0.51115  Biso   1.000  Se
  Se4      1.0000 0.34165  0.33781  0.51115  Biso   1.000  Se
  Se5      1.0000 0.33333  0.66667  0.51000  Biso   1.000  Se
  Se6      1.0000 0.66219  0.00384  0.51115  Biso   1.000  Se
  Se7      1.0000 0.66219  0.65835  0.51115  Biso   1.000  Se
  Se8      1.0000 0.21154  0.10577  0.66301  Biso   1.000  Se
  Se9      1.0000 0.21947  0.43894  0.65964  Biso   1.000  Se
  Se10     1.0000 0.21947  0.78053  0.65964  Biso   1.000  Se
  Se11     1.0000 0.55409  0.10818  0.66615  Biso   1.000  Se
  Se12     1.0000 0.55409  0.44591  0.66615  Biso   1.000  Se
  Se13     1.0000 0.56106  0.78053  0.65964  Biso   1.000  Se
  Se14     1.0000 0.89423  0.10577  0.66301  Biso   1.000  Se
  Se15     1.0000 0.89182  0.44591  0.66615  Biso   1.000  Se
  Se16     1.0000 0.89423  0.78846  0.66301  Biso   1.000  Se
  Se17     1.0000 0.00000  0.00000  0.85052  Biso   1.000  Se
  Se18     1.0000 0.00299  0.33403  0.85335  Biso   1.000  Se
  Se19     1.0000 0.00299  0.66896  0.85335  Biso   1.000  Se
  Se20     1.0000 0.33104  0.99701  0.85335  Biso   1.000  Se
  Se21     1.0000 0.33104  0.33403  0.85335  Biso   1.000  Se
  Se22     1.0000 0.33333  0.66667  0.84868  Biso   1.000  Se
  Se23     1.0000 0.66597  0.99701  0.85335  Biso   1.000  Se
  Se24     1.0000 0.66667  0.33333  0.85528  Biso   1.000  Se
  Se25     1.0000 0.66597  0.66896  0.85335  Biso   1.000  Se
  As1      1.0000 0.00000  0.00000  0.50052  Biso   1.000  As
  As2      1.0000 0.66667  0.33333  0.53392  Biso   1.000  As
