data_image0
_cell_length_a       12.2905
_cell_length_b       12.2905
_cell_length_c       20
_cell_angle_alpha    90
_cell_angle_beta     90
_cell_angle_gamma    120

_symmetry_space_group_name_H-M    "P 1"
_symmetry_int_tables_number       1

loop_
  _symmetry_equiv_pos_as_xyz
  'x, y, z'

loop_
  _atom_site_label
  _atom_site_occupancy
  _atom_site_fract_x
  _atom_site_fract_y
  _atom_site_fract_z
  _atom_site_thermal_displace_type
  _atom_site_B_iso_or_equiv
  _atom_site_type_symbol
  In1      1.0000 0.11715  0.23430  0.59393  Biso   1.000  In
  In2      1.0000 0.10527  0.55264  0.58297  Biso   1.000  In
  In3      1.0000 0.11715  0.88285  0.59393  Biso   1.000  In
  In4      1.0000 0.45359  0.22679  0.56772  Biso   1.000  In
  In5      1.0000 0.44737  0.55264  0.58297  Biso   1.000  In
  In6      1.0000 0.44737  0.89473  0.58297  Biso   1.000  In
  In7      1.0000 0.77321  0.22679  0.56772  Biso   1.000  In
  In8      1.0000 0.77321  0.54641  0.56772  Biso   1.000  In
  In9      1.0000 0.76570  0.88285  0.59393  Biso   1.000  In
  In10     1.0000 0.22241  0.11121  0.79559  Biso   1.000  In
  In11     1.0000 0.22114  0.44229  0.79852  Biso   1.000  In
  In12     1.0000 0.22114  0.77886  0.79852  Biso   1.000  In
  In13     1.0000 0.55465  0.10931  0.79052  Biso   1.000  In
  In14     1.0000 0.55465  0.44535  0.79052  Biso   1.000  In
  In15     1.0000 0.55771  0.77886  0.79852  Biso   1.000  In
  In16     1.0000 0.88879  0.11121  0.79559  Biso   1.000  In
  In17     1.0000 0.89069  0.44535  0.79052  Biso   1.000  In
  In18     1.0000 0.88879  0.77759  0.79559  Biso   1.000  In
  Se1      1.0000 0.00720  0.33283  0.51560  Biso   1.000  Se
  Se2      1.0000 0.00720  0.67437  0.51560  Biso   1.000  Se
  Se3      1.0000 0.32563  0.99281  0.51560  Biso   1.000  Se
  Se4      1.0000 0.32563  0.33283  0.51560  Biso   1.000  Se
  Se5      1.0000 0.33333  0.66667  0.52147  Biso   1.000  Se
  Se6      1.0000 0.66717  0.99281  0.51560  Biso   1.000  Se
  Se7      1.0000 0.66717  0.67437  0.51560  Biso   1.000  Se
  Se8      1.0000 0.23040  0.11520  0.66815  Biso   1.000  Se
  Se9      1.0000 0.22552  0.45103  0.67063  Biso   1.000  Se
  Se10     1.0000 0.22552  0.77449  0.67063  Biso   1.000  Se
  Se11     1.0000 0.55708  0.11415  0.66333  Biso   1.000  Se
  Se12     1.0000 0.55708  0.44292  0.66333  Biso   1.000  Se
  Se13     1.0000 0.54897  0.77449  0.67063  Biso   1.000  Se
  Se14     1.0000 0.88480  0.11520  0.66815  Biso   1.000  Se
  Se15     1.0000 0.88585  0.44292  0.66333  Biso   1.000  Se
  Se16     1.0000 0.88480  0.76960  0.66815  Biso   1.000  Se
  Se17     1.0000 0.00000  0.00000  0.85754  Biso   1.000  Se
  Se18     1.0000 0.99765  0.33362  0.85774  Biso   1.000  Se
  Se19     1.0000 0.99765  0.66403  0.85774  Biso   1.000  Se
  Se20     1.0000 0.33597  0.00235  0.85774  Biso   1.000  Se
  Se21     1.0000 0.33597  0.33362  0.85774  Biso   1.000  Se
  Se22     1.0000 0.33333  0.66667  0.85869  Biso   1.000  Se
  Se23     1.0000 0.66638  0.00235  0.85774  Biso   1.000  Se
  Se24     1.0000 0.66667  0.33333  0.85152  Biso   1.000  Se
  Se25     1.0000 0.66638  0.66403  0.85774  Biso   1.000  Se
  As1      1.0000 0.00000  0.00000  0.53487  Biso   1.000  As
  As2      1.0000 0.66667  0.33333  0.49943  Biso   1.000  As
